data/pglib_opf_case8387_pegase_storage.m
%%%%%%%%%%%%%%%%%%%%%%%%%%%%%%%%%%%%%%%%%%%%%%%%%%%%%%%%%%%%%%%%%%%%%%%%%%%
%%%%                                                                  %%%%%
%%%%    IEEE PES Power Grid Library - Optimal Power Flow - v23.07     %%%%%
%%%%          (https://github.com/power-grid-lib/pglib-opf)           %%%%%
%%%%               Benchmark Group - Typical Operations               %%%%%
%%%%                         23 - July - 2023                         %%%%%
%%%%                                                                  %%%%%
%%%%%%%%%%%%%%%%%%%%%%%%%%%%%%%%%%%%%%%%%%%%%%%%%%%%%%%%%%%%%%%%%%%%%%%%%%%
%
%   This network data stems from the Pan European Grid Advanced Simulation and
%   State Estimation (PEGASE) project, funded by the European Union
%   (http://www.fp7-pegase.com/). The data is derived from the original data
%   [1] provided to Florin Capitanescu in 2013 under request by the data owners
%   in PEGASE project. Revisions to the original raw include: (i) removing data
%   related to a specific transmission system operator, which were replaced by
%   equivalent loads at the end of the three interconnection lines; (ii) some
%   asymmetrical PI branch models were approximated as symmetrical, averaging
%   parameters values; (iii) modeling simplifications concerning the
%   transformer transversal sustenance; (iv) data anonymization; (v) data
%   conversion from Eurostag (.ech) format in to the MATPOWER (.m) format; and
%   (vi) definition of various AC-OPF problems (see [2] below). Note that
%   AC-OPF formulations of this dataset have traditionally modeled thermal
%   limits in terms of current but this version of the dataset uses MVA limits.
%
%   This power system model contains 8,387 buses, 1,865 generators, 4,669 loads,
%   12,474 lines, 2,087 transformers (out of which 589 OLTC and 84 phases
%   shifters) and 178 shunt capacitors/reactors. Also, 1,299 lines and 529
%   transformers (out of which 17 phase shifters) have more than one circuit in
%   parallel. The system models 8 voltage levels: 750, 400, 380, 330, 220, 150,
%   120, and 110 kV. This data is a reasonable representation of the size and
%   complexity of the European transmission system. However, the data is
%   fictitious and includes purposeful modifications of the real-world data.
%   Thus, this data can be used for test methods and algorithms, but should not
%   be used to make claims regarding the operation or planning of the European
%   power system.
%
%   This specific network data is publicly released for the purpose of testing
%   methods and algorithms on challenging optimization problems and more
%   comprehensive in terms of grid models and versatile AC OPF formulations
%   (see details in [2], where two solvers in MATPOWER version 4.1 failed to
%   converge on two instances and Florin Capitanescu's AC-OPF solver failed to
%   converge on another instance). For example, [2] presented results for 16
%   variants of AC-OPF problems with different objective functions, sets of
%   decision variables (e.g. among: generators active/reactive powers, ratio of
%   LTC transformers, reactance of shunt capacitors/reactors, and angle of
%   phase shifter transformers) and constraints. Researchers seeking to include
%   control variables like transformer tap ratio, phase shifter angle and shunt
%   reactance can contact Florin Capitanescu for the associated data.
%
%   Besides this test case, all AC OPF instances presented in [2] can be easily
%   obtained using one or some combinations of following features:
%
%   - Setting the angle of all 84 phase shifters to 0.0.
%
%   - Using identical unity costs (c=1.0) for all generators to minimize the
%     sum of generators active powers (an unconventional loss minimization via
%     also active power re-dispatch) as an OPF objective function.
%
%   - Using a quadratic OPF objective function that minimizes the sum of
%     squares of each generator's active power deviation with respect to the
%     initial value Pgi^0 (provided in the data set), i.e. (Pgi-Pgi^0)^2. Thus,
%     the coefficients of these fictitious cost function in p.u. (100MVA base)
%     are, (0.01*Pgi^0)^2 - 2*0.01*Pgi^0 + 0.0001*Pgi^0.
%
%   - The thermal limit of line between nodes 746 and 5968 and can be decreased
%     on purpose from 2061 MVA to 1000 MVA to create congestion (around 20%
%     current overload) and a tough OPF problem, see [2].
%
%   If one faces convergence issues with your an NLP solver, the following
%   simplifications are suggested:
%
%   - Generators with small active power range (<=20MW) are not taken as
%     control variable, their active power is fixed to the initial value.
%
%   - Generators with small reactive power range (<=10MVAr) are not taken as
%     control variable, their reactive power is fixed to the initial value.
%
%   - The reactance of 98 short lines could be raised to the minimum threshold
%     value of 0.0002 pu.
%
%   - The relative convergence tolerance of the NLP solver can be increased to
%     10^-5 on primal and dual feasibility.
%
%   When publishing results based on this data, please cite:
%
%   [1] F. Villella, S. Leclerc, I. Erlich, S. Rapoport, "PEGASE pan-European
%       test-beds for testing of algorithms on very large scale power systems".
%       IEEE PES Innovative Smart Grid Technologies Europe (ISGT Europe), 2012.
%
%   [2] F. Capitanescu, L. Wehenkel, "Experiments with the interior-point
%       method for solving large scale optimal power flow problems", Electric
%       Power Systems Research, 2013.
%
%   February, 2021
%
%   Copyright (c) 2021 by Florin Capitanescu <fcapitanescu@yahoo.com>
%   Licensed under the Creative Commons Attribution 4.0
%   International license, http://creativecommons.org/licenses/by/4.0/
%
% Modified to have additional storage capacity and increased gencost
function mpc = pglib_opf_case8387_pegase
mpc.version = '2';
mpc.baseMVA = 100.0;

%% bus data
%	bus_i	type	Pd	Qd	Gs	Bs	area	Vm	Va	baseKV	zone	Vmax	Vmin
mpc.bus = [
	1	 1	 378.4	 98.5	 0.0	 0.0	 1	    1.00000	    0.00000	 220.0	 1	    1.10000	    0.90000;
	2	 1	 151.0	 48.8	 0.0	 0.0	 1	    1.00000	    0.00000	 220.0	 1	    1.10000	    0.90000;
	3	 1	 171.4081	 23.4	 0.0	 0.0	 1	    1.01394	    0.00000	 220.0	 1	    1.12789	    0.90000;
	4	 1	 45.95095	 14.0	 0.0	 0.0	 1	    1.00000	    0.00000	 220.0	 1	    1.10000	    0.90000;
	5	 2	 343.4	 53.1	 0.0	 20.0	 1	    1.01328	    0.00000	 380.0	 1	    1.12656	    0.90000;
	6	 1	 31.03441	 10.3	 0.0	 0.0	 1	    1.00000	    0.00000	 110.0	 1	    1.10000	    0.90000;
	7	 1	 134.0	 24.7	 0.0	 0.0	 1	    1.03048	    0.00000	 220.0	 1	    1.16095	    0.90000;
	8	 1	 0.0	 0.0	 0.0	 11.29798	 1	    1.00000	    0.00000	 150.0	 1	    1.10000	    0.90000;
	9	 1	 -6.10677	 2.0	 0.0	 0.0	 1	    1.00252	    0.00000	 150.0	 1	    1.10505	    0.90000;
	10	 2	 8.509435	 5.0	 0.0	 0.0	 1	    1.00000	    0.00000	 220.0	 1	    1.10000	    0.90000;
	11	 1	 13.5	 14.8	 0.0	 0.0	 1	    1.03345	    0.00000	 380.0	 1	    1.16690	    0.90000;
	12	 1	 59.66615	 26.7	 0.0	 0.0	 1	    1.00668	    0.00000	 220.0	 1	    1.11337	    0.90000;
	13	 1	 67.67503	 12.1	 0.0	 0.0	 1	    1.00000	    0.00000	 220.0	 1	    1.10000	    0.90000;
	14	 2	 0.0	 0.0	 0.0	 0.0	 1	    1.00000	    0.00000	 380.0	 1	    1.10000	    0.90000;
	15	 1	 25.32808	 7.5	 0.0	 0.0	 1	    1.00000	    0.00000	 110.0	 1	    1.10000	    0.90000;
	16	 1	 161.2	 39.3	 0.0	 0.0	 1	    1.02680	    0.00000	 220.0	 1	    1.15360	    0.90000;
	17	 1	 0.0	 0.0	 0.0	 0.0	 1	    1.02308	    0.00000	 220.0	 1	    1.14616	    0.90000;
	18	 1	 19.62176	 7.1	 0.0	 0.0	 1	    1.00000	    0.00000	 110.0	 1	    1.10000	    0.90000;
	19	 1	 17.21909	 5.7	 0.0	 0.0	 1	    1.00000	    0.00000	 110.0	 1	    1.10000	    0.90000;
	20	 2	 0.0	 0.0	 0.0	 0.0	 1	    1.00000	    0.00000	 220.0	 1	    1.10000	    0.90000;
	21	 1	 167.3	 54.8	 0.0	 0.0	 1	    1.02004	    0.00000	 380.0	 1	    1.14008	    0.90000;
	22	 1	 0.0	 0.0	 0.0	 0.0	 1	    1.02105	    0.00000	 380.0	 1	    1.14211	    0.90000;
	23	 1	 0.0	 0.0	 0.0	 0.0	 1	    1.00000	    0.00000	 150.0	 1	    1.10000	    0.90000;
	24	 1	 152.9	 49.4	 0.0	 0.0	 1	    1.01093	    0.00000	 380.0	 1	    1.12186	    0.90000;
	25	 1	 0.0	 0.0	 0.0	 0.0	 1	    1.00000	    0.00000	 150.0	 1	    1.10000	    0.90000;
	26	 1	 69.67725	 43.2	 0.0	 0.0	 1	    0.98986	    0.00000	 150.0	 1	    1.10000	    0.87973;
	27	 2	 0.0	 0.0	 0.0	 0.0	 1	    1.00000	    0.00000	 220.0	 1	    1.10000	    0.90000;
	28	 2	 0.0	 0.0	 0.0	 0.0	 1	    1.00000	    0.00000	 220.0	 1	    1.10000	    0.90000;
	29	 1	 13.51498	 4.9	 0.0	 0.0	 1	    1.00310	    0.00000	 110.0	 1	    1.10621	    0.90000;
	30	 1	 10.51165	 3.5	 0.0	 0.0	 1	    1.01172	    0.00000	 110.0	 1	    1.12345	    0.90000;
	31	 1	 0.0	 0.0	 0.122998	 0.0	 1	    1.00756	    0.00000	 220.0	 1	    1.11512	    0.90000;
	32	 1	 9.210212	 2.6	 0.0	 0.0	 1	    1.00000	    0.00000	 110.0	 1	    1.10000	    0.90000;
	33	 1	 42.74739	 12.8	 0.0	 0.0	 1	    1.02886	    0.00000	 220.0	 1	    1.15771	    0.90000;
	34	 2	 0.0	 0.0	 0.0	 0.0	 1	    1.00000	    0.00000	 150.0	 1	    1.10000	    0.90000;
	35	 2	 24.02664	 7.8	 0.0	 0.0	 1	    1.00000	    0.00000	 110.0	 1	    1.10000	    0.90000;
	36	 1	 20.82309	 7.9	 0.0	 0.0	 1	    1.01930	    0.00000	 380.0	 1	    1.13861	    0.90000;
	37	 1	 0.0	 0.0	 0.0	 0.0	 1	    1.03070	    0.00000	 220.0	 1	    1.16139	    0.90000;
	38	 1	 10.11121	 3.7	 0.0	 0.0	 1	    1.00689	    0.00000	 110.0	 1	    1.11378	    0.90000;
	39	 1	 10.0111	 2.7	 0.0	 0.0	 1	    1.00000	    0.00000	 110.0	 1	    1.10000	    0.90000;
	40	 1	 6.306993	 0.0	 0.0	 0.0	 1	    1.00000	    0.00000	 110.0	 1	    1.10000	    0.90000;
	41	 1	 2.903219	 0.9	 0.0	 0.0	 1	    1.00000	    0.00000	 110.0	 1	    1.10000	    0.90000;
	42	 2	 0.0	 0.0	 0.0	 0.0	 1	    1.00652	    0.00000	 220.0	 1	    1.11304	    0.90000;
	43	 2	 151.8	 48.3	 0.0	 0.0	 1	    1.00000	    0.00000	 220.0	 1	    1.10000	    0.90000;
	44	 1	 127.6	 31.8	 0.0	 0.0	 1	    1.00986	    0.00000	 150.0	 1	    1.11972	    0.90000;
	45	 1	 48.65394	 16.1	 0.0	 0.0	 1	    1.02079	    0.00000	 220.0	 1	    1.14158	    0.90000;
	46	 1	 110.5	 -26.8	 0.0	 0.0	 1	    1.01425	    0.00000	 220.0	 1	    1.12849	    0.90000;
	47	 1	 0.0	 0.0	 0.0	 0.0	 1	    1.00000	    0.00000	 220.0	 1	    1.10000	    0.90000;
	48	 1	 140.0	 79.7	 0.0	 0.0	 1	    1.00000	    0.00000	 220.0	 1	    1.10000	    0.90000;
	49	 1	 0.0	 0.0	 0.0	 0.0	 1	    1.01785	    0.00000	 380.0	 1	    1.13570	    0.90000;
	50	 1	 119.2	 20.7	 0.0	 0.0	 1	    1.01293	    0.00000	 220.0	 1	    1.12587	    0.90000;
	51	 2	 5.105661	 1.3	 0.0	 0.0	 1	    1.00000	    0.00000	 110.0	 1	    1.10000	    0.90000;
	52	 1	 0.0	 0.0	 0.0	 0.0	 1	    1.00000	    0.00000	 380.0	 1	    1.10000	    0.90000;
	53	 1	 0.0	 0.0	 0.0	 0.0	 1	    1.00000	    0.00000	 110.0	 1	    1.10000	    0.90000;
	54	 1	 187.9	 110.2	 0.0	 20.0	 1	    1.00663	    0.00000	 380.0	 1	    1.11326	    0.90000;
	55	 1	 14.91654	 5.5	 0.0	 0.0	 1	    1.00000	    0.00000	 110.0	 1	    1.10000	    0.90000;
	56	 1	 -18.5205	 6.1	 0.0	 0.0	 1	    1.00000	    0.00000	 150.0	 1	    1.10000	    0.90000;
	57	 1	 4.605106	 1.7	 0.0	 0.0	 1	    1.01755	    0.00000	 110.0	 1	    1.13511	    0.90000;
	58	 1	 0.0	 0.0	 0.090701	 0.0	 1	    1.02465	    0.00000	 380.0	 1	    1.14929	    0.90000;
	59	 1	 10.81199	 5.1	 0.0	 0.0	 1	    1.00000	    0.00000	 110.0	 1	    1.10000	    0.90000;
	60	 1	 62.86971	 20.5	 0.0	 0.0	 1	    1.01094	    0.00000	 150.0	 1	    1.12187	    0.90000;
	61	 1	 126.3	 42.4	 0.0	 0.0	 1	    1.02815	    0.00000	 150.0	 1	    1.15630	    0.90000;
	62	 1	 6.907659	 -4.6	 0.0	 0.0	 1	    1.00000	    0.00000	 220.0	 1	    1.10000	    0.90000;
	63	 1	 15.71743	 5.2	 0.0	 0.0	 1	    1.00000	    0.00000	 110.0	 1	    1.10000	    0.90000;
	64	 1	 0.0	 0.0	 0.0	 17.1282	 1	    1.00000	    0.00000	 150.0	 1	    1.10000	    0.90000;
	65	 1	 38.74295	 6.1	 0.0	 0.0	 1	    1.00377	    0.00000	 220.0	 1	    1.10755	    0.90000;
	66	 1	 22.12453	 10.7	 0.0	 0.0	 1	    1.02891	    0.00000	 220.0	 1	    1.15781	    0.90000;
	67	 1	 0.0	 0.0	 0.0	 0.0	 1	    1.00000	    0.00000	 220.0	 1	    1.10000	    0.90000;
	68	 1	 0.0	 0.0	 0.0	 0.0	 1	    1.00000	    0.00000	 110.0	 1	    1.10000	    0.90000;
	69	 1	 138.8	 136.7	 0.0	 0.0	 1	    1.00000	    0.00000	 380.0	 1	    1.10000	    0.90000;
	70	 2	 137.3	 66.4	 0.0	 0.0	 1	    1.00412	    0.00000	 220.0	 1	    1.10824	    0.90000;
	71	 2	 67.77514	 19.7	 0.0	 0.0	 1	    1.00000	    0.00000	 150.0	 1	    1.10000	    0.90000;
	72	 1	 22.02442	 5.1	 0.0	 0.0	 1	    1.00000	    0.00000	 110.0	 1	    1.20000	    0.80000;
	73	 1	 0.0	 0.0	 0.0	 0.0	 1	    1.00000	    0.00000	 220.0	 1	    1.10000	    0.90000;
	74	 1	 1.00111	 0.3	 0.0	 0.0	 1	    1.01642	    0.00000	 110.0	 1	    1.13284	    0.90000;
	75	 1	 0.0	 0.0	 0.0	 0.0	 1	    1.00000	    0.00000	 150.0	 1	    1.10000	    0.90000;
	76	 1	 21.52386	 5.1	 0.0	 0.0	 1	    1.00000	    0.00000	 110.0	 1	    1.10000	    0.90000;
	77	 1	 71.9798	 28.8	 0.0	 0.0	 1	    1.01750	    0.00000	 220.0	 1	    1.13500	    0.90000;
	78	 1	 0.0	 0.0	 0.173359	 0.0	 1	    1.00000	    0.00000	 380.0	 1	    1.10000	    0.90000;
	79	 2	 365.2	 116.5	 0.0	 0.0	 1	    1.00548	    0.00000	 220.0	 1	    1.11095	    0.90000;
	80	 1	 0.0	 0.0	 0.0	 0.0	 1	    1.02857	    0.00000	 150.0	 1	    1.15715	    0.90000;
	81	 1	 192.9	 73.3	 0.0	 0.0	 1	    1.01310	    0.00000	 380.0	 1	    1.12619	    0.90000;
	82	 1	 17.51942	 6.3	 0.0	 0.0	 1	    1.01760	    0.00000	 110.0	 1	    1.13520	    0.90000;
	83	 1	 33.13674	 12.0	 0.0	 0.0	 1	    1.00000	    0.00000	 110.0	 1	    1.10000	    0.90000;
	84	 1	 40.44484	 25.0	 0.0	 0.0	 1	    1.00000	    0.00000	 150.0	 1	    1.10000	    0.90000;
	85	 2	 212.9	 61.7	 0.0	 0.0	 1	    1.01207	    0.00000	 220.0	 1	    1.12414	    0.90000;
	86	 1	 0.0	 0.0	 0.0	 0.0	 1	    1.01340	    0.00000	 380.0	 1	    1.12681	    0.90000;
	87	 1	 90.70056	 25.5	 0.0	 0.0	 1	    1.00743	    0.00000	 220.0	 1	    1.11487	    0.90000;
	88	 1	 176.3	 -58.9	 0.0	 0.0	 1	    1.02562	    0.00000	 380.0	 1	    1.15124	    0.90000;
	89	 1	 35.93985	 22.3	 0.0	 0.0	 1	    1.00000	    0.00000	 150.0	 1	    1.10000	    0.90000;
	90	 1	 0.0	 0.0	 0.0	 0.0	 1	    1.00000	    0.00000	 150.0	 1	    1.10000	    0.90000;
	91	 1	 0.0	 0.0	 0.0	 0.0	 1	    1.00000	    0.00000	 220.0	 1	    1.10000	    0.90000;
	92	 1	 65.07214	 40.3	 0.0	 0.0	 1	    1.00000	    0.00000	 150.0	 1	    1.10000	    0.90000;
	93	 1	 51.35694	 -8.8	 0.0	 0.0	 1	    1.00000	    0.00000	 220.0	 1	    1.10000	    0.90000;
	94	 1	 0.0	 0.0	 0.0	 0.0	 1	    1.01449	    0.00000	 380.0	 1	    1.12898	    0.90000;
	95	 1	 0.0	 0.0	 0.0	 0.0	 1	    1.04155	    0.00000	 380.0	 1	    1.18311	    0.90000;
	96	 2	 0.0	 0.0	 0.0	 0.0	 1	    1.00954	    0.00000	 380.0	 1	    1.11908	    0.90000;
	97	 1	 3.804218	 1.3	 0.0	 0.0	 1	    1.00000	    0.00000	 110.0	 1	    1.10000	    0.90000;
	98	 1	 0.0	 0.0	 0.0	 0.0	 1	    1.00000	    0.00000	 150.0	 1	    1.10000	    0.90000;
	99	 1	 61.06771	 36.0	 0.0	 0.0	 1	    1.00000	    0.00000	 220.0	 1	    1.10000	    0.90000;
	100	 1	 0.0	 0.0	 0.0	 0.0	 1	    1.01426	    0.00000	 220.0	 1	    1.12853	    0.90000;
	101	 1	 0.0	 0.0	 0.0	 0.0	 1	    1.02297	    0.00000	 380.0	 1	    1.14595	    0.90000;
	102	 1	 0.0	 0.0	 0.0	 0.0	 1	    1.04218	    0.00000	 220.0	 1	    1.18435	    0.90000;
	103	 1	 1.801998	 0.7	 0.0	 0.0	 1	    1.00000	    0.00000	 110.0	 1	    1.10000	    0.90000;
	104	 1	 40.0444	 16.0	 0.0	 0.0	 1	    1.00000	    0.00000	 110.0	 1	    1.10000	    0.90000;
	105	 1	 0.0	 0.0	 0.0	 0.0	 1	    1.00980	    0.00000	 380.0	 1	    1.11960	    0.90000;
	106	 1	 0.0	 0.0	 0.0	 0.0	 1	    1.01150	    0.00000	 150.0	 1	    1.12300	    0.90000;
	107	 1	 45.15006	 14.1	 0.0	 0.0	 1	    1.00000	    0.00000	 110.0	 1	    1.10000	    0.90000;
	108	 1	 0.0	 0.0	 0.0	 0.0	 1	    1.00000	    0.00000	 220.0	 1	    1.10000	    0.90000;
	109	 2	 0.0	 0.0	 0.0	 0.0	 1	    1.00665	    0.00000	 220.0	 1	    1.11331	    0.90000;
	110	 2	 0.0	 0.0	 0.0	 0.0	 1	    1.01601	    0.00000	 220.0	 1	    1.13202	    0.90000;
	111	 2	 8.209102	 4.4	 0.0	 0.0	 1	    1.00000	    0.00000	 110.0	 1	    1.10000	    0.90000;
	112	 1	 0.0	 0.0	 0.0	 0.0	 1	    1.01109	    0.00000	 220.0	 1	    1.12219	    0.90000;
	113	 1	 23.72631	 12.7	 0.0	 0.0	 1	    1.01454	    0.00000	 220.0	 1	    1.12909	    0.90000;
	114	 1	 121.9	 7.4	 0.0	 0.0	 1	    1.00959	    0.00000	 220.0	 1	    1.11918	    0.90000;
	115	 1	 0.0	 0.0	 0.156015	 0.0	 1	    1.02719	    0.00000	 380.0	 1	    1.15438	    0.90000;
	116	 1	 47.3525	 16.4	 0.0	 0.0	 1	    1.00000	    0.00000	 110.0	 1	    1.10000	    0.90000;
	117	 1	 0.0	 0.0	 0.0	 0.0	 1	    1.02734	    0.00000	 380.0	 1	    1.15468	    0.90000;
	118	 1	 38.14229	 12.5	 0.0	 0.0	 1	    1.00880	    0.00000	 150.0	 1	    1.11760	    0.90000;
	119	 1	 130.6	 84.9	 0.0	 0.0	 1	    1.00000	    0.00000	 220.0	 1	    1.10000	    0.90000;
	120	 1	 7.908769	 2.6	 0.0	 0.0	 1	    1.00000	    0.00000	 110.0	 1	    1.10000	    0.90000;
	121	 2	 47.15228	 78.0	 0.0	 0.0	 1	    1.00000	    0.00000	 150.0	 1	    1.10000	    0.90000;
	122	 1	 -75.3836	 7.8	 0.0	 0.0	 1	    1.02934	    0.00000	 380.0	 1	    1.15868	    0.90000;
	123	 1	 0.0	 0.0	 0.0	 0.0	 1	    1.00000	    0.00000	 380.0	 1	    1.10000	    0.90000;
	124	 1	 0.0	 0.0	 0.0	 0.0	 1	    1.00000	    0.00000	 220.0	 1	    1.10000	    0.90000;
	125	 2	 100.9	 49.3	 0.0	 0.0	 1	    1.00263	    0.00000	 220.0	 1	    1.10525	    0.90000;
	126	 2	 0.0	 0.0	 0.0	 0.0	 1	    1.01655	    0.00000	 220.0	 1	    1.13311	    0.90000;
	127	 1	 0.0	 0.0	 0.0	 0.0	 1	    1.01901	    0.00000	 150.0	 1	    1.13802	    0.90000;
	128	 1	 0.0	 0.0	 0.0	 0.0	 1	    1.00000	    0.00000	 380.0	 1	    1.10000	    0.90000;
	129	 1	 38.34251	 5.6	 0.0	 0.0	 1	    1.02298	    0.00000	 220.0	 1	    1.14596	    0.90000;
	130	 1	 269.6	 65.7	 0.0	 0.0	 1	    1.03024	    0.00000	 120.0	 1	    1.16048	    0.90000;
	131	 2	 160.0	 3.3	 0.0	 0.0	 1	    1.02245	    0.00000	 220.0	 1	    1.14491	    0.90000;
	132	 1	 32.33585	 12.0	 0.0	 0.0	 1	    1.01605	    0.00000	 220.0	 1	    1.13210	    0.90000;
	133	 1	 100.1	 45.1	 0.0	 0.0	 1	    1.00781	    0.00000	 380.0	 1	    1.11561	    0.90000;
	134	 2	 12.31365	 3.9	 0.0	 0.0	 1	    1.03188	    0.00000	 220.0	 1	    1.16377	    0.90000;
	135	 1	 0.0	 0.0	 0.0	 0.0	 1	    1.01475	    0.00000	 150.0	 1	    1.12950	    0.90000;
	136	 1	 0.0	 0.0	 0.0	 0.0	 1	    1.00000	    0.00000	 110.0	 1	    1.10000	    0.90000;
	137	 1	 0.0	 0.0	 0.0	 0.0	 1	    1.00000	    0.00000	 110.0	 1	    1.10000	    0.90000;
	138	 1	 40.34473	 25.0	 0.0	 0.0	 1	    1.00000	    0.00000	 150.0	 1	    1.10000	    0.90000;
	139	 1	 9.210212	 3.3	 0.0	 0.0	 1	    1.00362	    0.00000	 110.0	 1	    1.10724	    0.90000;
	140	 1	 166.0	 60.3	 0.0	 0.0	 1	    1.00000	    0.00000	 220.0	 1	    1.10000	    0.90000;
	141	 1	 0.0	 0.0	 0.0	 0.0	 1	    1.00000	    0.00000	 150.0	 1	    1.10000	    0.90000;
	142	 1	 0.0	 0.0	 0.0	 0.0	 1	    1.00745	    0.00000	 150.0	 1	    1.11491	    0.90000;
	143	 1	 0.0	 0.0	 0.0	 0.0	 1	    1.03352	    0.00000	 380.0	 1	    1.16705	    0.90000;
	144	 2	 152.4	 35.1	 0.0	 0.0	 1	    1.01777	    0.00000	 220.0	 1	    1.13555	    0.90000;
	145	 1	 0.0	 0.0	 0.0	 0.0	 1	    1.01955	    0.00000	 150.0	 1	    1.13909	    0.90000;
	146	 1	 26.8	 -3.7	 0.0	 -25.3011	 1	    1.00905	    0.00000	 380.0	 1	    1.11809	    0.90000;
	147	 2	 0.0	 0.0	 0.0	 0.0	 1	    1.00000	    0.00000	 220.0	 1	    1.10000	    0.90000;
	148	 1	 257.5	 131.1	 0.0	 0.0	 1	    1.00000	    0.00000	 220.0	 1	    1.10000	    0.90000;
	149	 1	 0.0	 0.0	 0.0	 0.0	 1	    1.00000	    0.00000	 150.0	 1	    1.10000	    0.90000;
	150	 1	 0.0	 0.0	 0.0	 0.0	 1	    1.00000	    0.00000	 220.0	 1	    1.10000	    0.90000;
	151	 1	 100.8	 13.2	 0.0	 0.0	 1	    1.04391	    0.00000	 220.0	 1	    1.18781	    0.90000;
	152	 2	 113.9	 11.9	 0.0	 0.0	 1	    1.00000	    0.00000	 220.0	 1	    1.10000	    0.90000;
	153	 2	 104.4	 0.7	 0.0	 0.0	 1	    1.00000	    0.00000	 220.0	 1	    1.10000	    0.90000;
	154	 1	 370.5	 -17.0	 0.0	 0.0	 1	    1.02827	    0.00000	 220.0	 1	    1.15654	    0.90000;
	155	 1	 9.910988	 3.2	 0.0	 0.0	 1	    1.00000	    0.00000	 110.0	 1	    1.10000	    0.90000;
	156	 2	 0.0	 0.0	 0.0	 0.0	 1	    1.00000	    0.00000	 150.0	 1	    1.10000	    0.90000;
	157	 1	 94.9	 36.2	 0.0	 0.0	 1	    1.00000	    0.00000	 220.0	 1	    1.10000	    0.90000;
	158	 1	 81.0899	 48.0	 0.0	 0.0	 1	    1.00000	    0.00000	 150.0	 1	    1.10000	    0.90000;
	159	 2	 210.4	 159.2	 0.0	 0.0	 1	    1.01645	    0.00000	 380.0	 1	    1.13289	    0.90000;
	160	 1	 0.0	 0.0	 0.0	 0.0	 1	    1.00000	    0.00000	 110.0	 1	    1.10000	    0.90000;
	161	 1	 54.96094	 16.9	 0.0	 0.0	 1	    1.00000	    0.00000	 110.0	 1	    1.10000	    0.90000;
	162	 1	 19.32142	 26.0	 0.0	 0.0	 1	    1.00000	    0.00000	 220.0	 1	    1.10000	    0.90000;
	163	 1	 0.0	 0.0	 0.0	 0.0	 1	    1.00000	    0.00000	 150.0	 1	    1.10000	    0.90000;
	164	 1	 0.0	 0.0	 0.0	 0.0	 1	    1.01214	    0.00000	 220.0	 1	    1.12428	    0.90000;
	165	 1	 19.92209	 6.6	 0.0	 0.0	 1	    1.00000	    0.00000	 110.0	 1	    1.10000	    0.90000;
	166	 1	 57.16338	 2.0	 0.0	 0.0	 1	    1.00000	    0.00000	 110.0	 1	    1.10000	    0.90000;
	167	 1	 69.57714	 16.0	 0.0	 0.0	 1	    1.03299	    0.00000	 220.0	 1	    1.16597	    0.90000;
	168	 1	 36.84085	 13.9	 0.0	 0.0	 1	    1.03077	    0.00000	 220.0	 1	    1.16155	    0.90000;
	169	 2	 4.805328	 1.3	 0.0	 0.0	 1	    1.00000	    0.00000	 110.0	 1	    1.10000	    0.90000;
	170	 2	 9.210212	 6.0	 0.0	 0.0	 1	    1.00000	    0.00000	 110.0	 1	    1.10000	    0.90000;
	171	 1	 0.0	 0.0	 0.0	 0.0	 1	    1.00512	    0.00000	 220.0	 1	    1.11024	    0.90000;
	172	 2	 0.0	 0.0	 0.0	 0.0	 1	    1.00000	    0.00000	 380.0	 1	    1.10000	    0.90000;
	173	 1	 119.9	 3.7	 0.0	 0.0	 1	    1.00000	    0.00000	 220.0	 1	    1.10000	    0.90000;
	174	 2	 0.0	 0.0	 0.0	 0.0	 1	    1.00389	    0.00000	 150.0	 1	    1.10778	    0.90000;
	175	 2	 75.78402	 24.6	 0.0	 0.0	 1	    1.02662	    0.00000	 220.0	 1	    1.15324	    0.90000;
	176	 1	 0.0	 0.0	 0.0	 0.0	 1	    1.03341	    0.00000	 220.0	 1	    1.16682	    0.90000;
	177	 2	 0.0	 0.0	 0.288019	 0.0	 1	    1.00980	    0.00000	 380.0	 1	    1.11959	    0.90000;
	178	 1	 39.74406	 11.8	 0.0	 0.0	 1	    1.01333	    0.00000	 220.0	 1	    1.12666	    0.90000;
	179	 1	 86.79623	 28.4	 0.0	 0.0	 1	    1.01202	    0.00000	 150.0	 1	    1.12403	    0.90000;
	180	 1	 22.42486	 2.1	 0.0	 0.0	 1	    1.00000	    0.00000	 150.0	 1	    1.10000	    0.90000;
	181	 2	 0.0	 0.0	 0.0	 0.0	 1	    1.00385	    0.00000	 220.0	 1	    1.10770	    0.90000;
	182	 1	 110.9	 32.7	 0.0	 0.0	 1	    1.00000	    0.00000	 220.0	 1	    1.10000	    0.90000;
	183	 1	 0.0	 0.0	 0.191685	 0.0	 1	    1.00682	    0.00000	 220.0	 1	    1.11363	    0.90000;
	184	 1	 46.15117	 18.2	 0.0	 0.0	 1	    1.01722	    0.00000	 150.0	 1	    1.13444	    0.90000;
	185	 1	 34.03774	 12.3	 0.0	 0.0	 1	    1.01882	    0.00000	 110.0	 1	    1.13765	    0.90000;
	186	 2	 322.4	 84.4	 0.0	 0.0	 1	    1.00468	    0.00000	 220.0	 1	    1.10936	    0.90000;
	187	 1	 33.43707	 10.0	 0.0	 0.0	 1	    1.00000	    0.00000	 110.0	 1	    1.10000	    0.90000;
	188	 2	 0.0	 0.0	 0.0	 0.0	 1	    1.00000	    0.00000	 110.0	 1	    1.10000	    0.90000;
	189	 1	 0.0	 0.0	 0.0	 0.0	 1	    1.00000	    0.00000	 110.0	 1	    1.10000	    0.90000;
	190	 1	 75.28346	 19.2	 0.0	 0.0	 1	    1.00758	    0.00000	 110.0	 1	    1.11516	    0.90000;
	191	 2	 219.6	 77.5	 0.0	 0.0	 1	    1.00634	    0.00000	 220.0	 1	    1.11269	    0.90000;
	192	 1	 37.3414	 10.9	 0.0	 0.0	 1	    1.00000	    0.00000	 110.0	 1	    1.20000	    0.80000;
	193	 2	 340.0	 93.8	 0.0	 0.0	 1	    1.01309	    0.00000	 380.0	 1	    1.12617	    0.90000;
	194	 1	 0.0	 0.0	 0.0	 0.0	 1	    1.00000	    0.00000	 110.0	 1	    1.10000	    0.90000;
	195	 1	 155.6	 54.7	 0.0	 0.0	 1	    1.01826	    0.00000	 220.0	 1	    1.13653	    0.90000;
	196	 1	 105.2	 0.1	 0.0	 0.0	 1	    1.01766	    0.00000	 220.0	 1	    1.13531	    0.90000;
	197	 2	 80.9898	 21.0	 0.0	 0.0	 1	    1.00321	    0.00000	 220.0	 1	    1.10643	    0.90000;
	198	 2	 0.0	 0.0	 0.0	 0.0	 1	    1.01008	    0.00000	 380.0	 1	    1.12015	    0.90000;
	199	 2	 0.0	 0.0	 0.0	 0.0	 1	    1.03238	    0.00000	 380.0	 1	    1.16475	    0.90000;
	200	 2	 0.0	 0.0	 0.0	 0.0	 1	    1.01916	    0.00000	 380.0	 1	    1.13832	    0.90000;
...
];

%% generator data
%	bus	Pg	Qg	Qmax	Qmin	Vg	mBase	status	Pmax	Pmin
mpc.gen = [
	5	 1044.4	 140.4	 524.5259	 -211.567	 1.060105	 1580.692228	 1	 1200.0	 399.999996; % COW
	10	 31.25	 13.32	 9999.0	 -9999.0	 1.045776	 50.95553	 1	 9999.0	 -9999.0; % COW
	14	 467.5	 104.0	 212.965	 -93.4811	 1.040474	 718.392346	 1	 500.0	 166.666665; % COW
	20	 319.6	 86.8	 179.4347	 -66.2055	 1.012955	 496.765941	 1	 400.0	 0.0; % NG
	27	 8.0	 0.8	 0.8	 0.8	 1.020864	 12.059851	 1	 8.0	 8.0; % NG
	28	 5.3	 0.1	 0.1	 0.1	 1.025773	 7.951415	 1	 5.3	 5.3; % PEL
	34	 34.3	 1.2	 17.7615	 -7.14375	 1.023133	 51.481477	 1	 40.0	 0.0; % NG
	35	 8.01	 3.26	 9999.0	 -9999.0	 0.952528	 12.971982	 1	 9999.0	 -9999.0; % NUC
	42	 309.2	 59.2	 218.5186	 -75.9716	 1.051136	 472.224396	 1	 480.0	 0.0; % NG
	43	 7.3	 1.8	 1.8	 1.8	 1.026	 11.277965	 1	 7.3	 7.3; % NG
	51	 4.87	 2.96	 9999.0	 -9999.0	 1.030763	 8.548487	 1	 9999.0	 -9999.0; % COW
	70	 180.5	 28.3	 139.9369	 -43.7779	 1.022545	 274.057594	 1	 300.0	 100.0; % NG
	71	 0.02	 0.52	 9999.0	 -9999.0	 1.048726	 0.780577	 1	 9999.0	 -9999.0; % NUC
	79	 1.95	 1.11	 9999.0	 -9999.0	 1.031659	 3.365687	 1	 9999.0	 -9999.0; % COW
	85	 19.73	 8.33	 9999.0	 -9999.0	 1.068345	 32.124586	 1	 9999.0	 -9999.0; % COW
	96	 570.0	 10.2	 253.8527	 -113.787	 1.103763	 855.136884	 1	 600.0	 199.999998; % NG
	109	 24.9	 10.2	 18.84201	 -6.06272	 1.066727	 40.362266	 1	 40.0	 0.0; % NG
	110	 861.3	 112.3	 440.32	 -172.589	 1.066	 1302.885338	 1	 1000.0	 333.333333; % COW
	111	 4.79	 1.72	 9999.0	 -9999.0	 1.0287	 7.634175	 1	 9999.0	 -9999.0; % NG
	121	 5.05	 3.39	 9999.0	 -9999.0	 1.029075	 9.123478	 1	 9999.0	 -9999.0; % NUC
	125	 27.7	 5.9	 18.59004	 -6.32799	 1.002727	 42.482055	 1	 40.0	 0.0; % COW
	126	 158.7	 14.4	 78.14512	 -32.3995	 1.080818	 239.027953	 1	 180.0	 0.0; % NG
	131	 144.0	 4.8	 70.12466	 -29.5005	 1.095727	 216.119967	 1	 160.0	 0.0; % COW
	134	 79.6	 9.6	 77.09313	 -22.5412	 1.0975	 120.265207	 1	 160.0	 0.0; % NG
	144	 4.64	 2.37	 9999.0	 -9999.0	 1.073994	 7.815345	 1	 9999.0	 -9999.0; % COW
	147	 292.2	 63.3	 127.6701	 -56.5257	 1.030091	 448.466713	 1	 300.0	 0.0; % NG
	152	 2.2	 0.94	 9999.0	 -9999.0	 1.0096	 3.588607	 1	 9999.0	 -9999.0; % COW
	153	 14.02	 5.75	 9999.0	 -9999.0	 1.0196	 22.72997	 1	 9999.0	 -9999.0; % COW
	156	 0.69	 5.46	 9999.0	 -9999.0	 1.008891	 8.255139	 1	 9999.0	 -9999.0; % COW
	159	 31.2	 3.1	 52.63864	 -51.7172	 1.089842	 47.030442	 1	 158.0808	 0.0; % COW
	169	 19.85	 6.42	 9999.0	 -9999.0	 0.998323	 31.29357	 1	 9999.0	 -9999.0; % COW
	170	 99.9	 20.7	 54.23686	 -20.6272	 0.993364	 153.033085	 1	 120.0	 0.0; % NG
	172	 135.8	 13.0	 91.61313	 -30.9805	 1.087684	 204.631229	 1	 200.0	 0.0; % NG
	174	 268.6	 61.3	 130.1877	 -53.534	 1.075867	 413.259256	 1	 300.0	 100.0; % COW
	175	 2.64	 3.05	 9999.0	 -9999.0	 1.092354	 6.050804	 1	 9999.0	 -9999.0; % NUC
	177	 292.2	 -21.9	 123.8859	 -59.5392	 1.105553	 439.529308	 1	 300.0	 0.0; % COW
	181	 5.2	 0.3	 0.3	 0.3	 1.057864	 7.81297	 1	 5.2	 5.2; % NG
	186	 0.42	 0.0	 9999.0	 -9999.0	 1.03615	 0.63	 1	 9999.0	 -9999.0; % NG
	188	 25.4	 5.3	 18.70203	 -6.16587	 0.972727	 38.920592	 1	 40.0	 0.0; % COW
	191	 123.91	 52.96	 9999.0	 -9999.0	 1.040354	 202.129938	 1	 9999.0	 -9999.0; % NG
	193	 164.8	 64.9	 191.9957	 -52.889	 1.056395	 265.678118	 1	 400.0	 133.333333; % NG
	197	 11.16	 5.88	 9999.0	 -9999.0	 1.049023	 18.921416	 1	 9999.0	 -9999.0; % NG
	198	 1171.0	 381.4	 937.433	 -288.159	 1.079342	 1847.319859	 1	 2000.0	 666.666666; % COW
	199	 668.7	 -45.9	 402.9197	 -146.951	 1.0985	 1005.410177	 1	 900.0	 300.0; % COW
	200	 296.0	 62.0	 183.9209	 -65.2995	 1.076684	 453.635316	 1	 400.0	 133.33333; % NG
	201	 28.9	 2.9	 12.50527	 -5.62181	 0.944667	 43.567706	 1	 29.60204	 9.867347; % NG
	209	 2.13	 0.78	 9999.0	 -9999.0	 1.011746	 3.402488	 1	 9999.0	 -9999.0; % COW
	210	 0.13	 1.0	 9999.0	 -9999.0	 1.04248	 1.512622	 1	 9999.0	 -9999.0; % COW
	217	 39.0	 15.8	 38.52133	 -11.2425	 1.036909	 63.11846	 1	 80.0	 0.0; % NG
	224	 439.0	 127.6	 378.0823	 -112.594	 1.057909	 685.752295	 1	 800.0	 266.666666; % COW
	226	 52.2	 9.6	 37.47434	 -12.3498	 1.0115	 79.613127	 1	 80.0	 0.0; % NG
	232	 423.2	 37.6	 220.6567	 -85.886	 1.102342	 637.300557	 1	 500.0	 166.666667; % COW
	235	 0.68	 14.79	 9999.0	 -9999.0	 1.033422	 22.208436	 1	 9999.0	 -9999.0; % COW
	238	 45.4	 9.6	 38.09511	 -11.7155	 1.028136	 69.605819	 1	 80.0	 0.0; % NG
	243	 0.13	 1.0	 9999.0	 -9999.0	 1.079235	 1.512622	 1	 9999.0	 -9999.0; % COW
	253	 49.2	 10.0	 37.70184	 -12.0883	 0.979909	 75.308964	 1	 80.0	 0.0; % NG
	257	 1295.6	 65.4	 924.6445	 -300.349	 1.104	 1945.874397	 1	 2000.0	 666.666666; % COW
	263	 52.7	 -0.5	 26.01981	 -10.8118	 1.090773	 79.053558	 1	 60.0	 0.0; % PEL
	272	 1204.0	 144.4	 721.2503	 -258.712	 1.078658	 1818.942429	 1	 1600.0	 533.333332; % NUC
	274	 14.85	 4.95	 9999.0	 -9999.0	 0.97336	 23.479912	 1	 9999.0	 -9999.0; % COW
	281	 95.1	 21.4	 42.62279	 -18.7213	 1.014045	 146.217073	 1	 100.0	 0.0; % COW
	282	 -2.1	 286.38	 99999.0	 -99999.0	 1.092632	 429.581549	 1	 -2.1	 -2.1; % SYNC
	284	 0.16	 2.91	 9999.0	 -9999.0	 1.075726	 4.371593	 1	 9999.0	 -9999.0; % NUC
	292	 94.0	 22.2	 95.31674	 -27.2949	 1.087711	 144.87888	 1	 200.0	 0.0; % NG
	295	 213.6	 26.5	 188.9056	 -56.1422	 0.948091	 322.85635	 1	 400.0	 133.333333; % NG
	303	 -1.81	 1.5	 9999.0	 -9999.0	 1.030147	 3.526149	 1	 9999.0	 -9999.0; % COW
	304	 83.7	 12.6	 55.54403	 -19.1586	 1.076818	 126.964611	 1	 120.0	 0.0; % NG
	308	 12.84	 3.2	 9999.0	 -9999.0	 1.060331	 19.849121	 1	 9999.0	 -9999.0; % PEL
	313	 160.4	 20.8	 110.5715	 -36.9041	 1.102211	 242.614509	 1	 240.0	 0.0; % NG
	316	 0.15	 1.93	 9999.0	 -9999.0	 1.029313	 2.90373	 1	 9999.0	 -9999.0; % COW
	317	 1250.4	 256.2	 926.3492	 -297.678	 1.092132	 1914.565708	 1	 2000.0	 666.666666; % COW
	320	 4.86	 2.15	 9999.0	 -9999.0	 0.975854	 7.971495	 1	 9999.0	 -9999.0; % COW
	325	 238.3	 26.9	 186.3895	 -58.5035	 1.095395	 359.720204	 1	 400.0	 133.333333; % NG
	326	 0.03	 0.68	 9999.0	 -9999.0	 0.97953	 1.020992	 1	 9999.0	 -9999.0; % COW
	334	 318.8	 103.6	 282.9458	 -84.3021	 1.092053	 502.816468	 1	 600.0	 200.0; % COW
	338	 0.18	 1.0	 9999.0	 -9999.0	 1.064448	 1.524106	 1	 9999.0	 -9999.0; % COW
	339	 106.95	 44.5	 9999.0	 -9999.0	 0.999614	 173.757714	 1	 9999.0	 -9999.0; % PEL
	343	 42.2	 17.4	 38.39833	 -11.4385	 1.090682	 68.469701	 1	 80.0	 0.0; % NG
	348	 0.19	 4.38	 9999.0	 -9999.0	 1.086247	 6.576179	 1	 9999.0	 -9999.0; % COW
	350	 69.0	 6.0	 56.72846	 -17.8435	 1.0236	 103.890567	 1	 120.0	 0.0; % COW
	355	 2404.4	 187.9	 1224.256	 -490.165	 1.082	 3617.596299	 1	 2800.0	 933.333331; % COW
	361	 30.67	 11.83	 9999.0	 -9999.0	 0.997732	 49.308671	 1	 9999.0	 -9999.0; % COW
	362	 6.57	 4.31	 9999.0	 -9999.0	 1.021904	 11.786316	 1	 9999.0	 -9999.0; % COW
	365	 9.81	 3.56	 9999.0	 -9999.0	 1.012912	 15.653972	 1	 9999.0	 -9999.0; % COW
	367	 30.4	 -0.7	 22.21964	 -17.3452	 0.949182	 45.612087	 1	 61.22614	 0.0; % NG
	369	 3.31	 1.62	 9999.0	 -9999.0	 1.034669	 5.527759	 1	 9999.0	 -9999.0; % COW
	370	 35.9	 4.4	 17.65988	 -7.27293	 1.024636	 54.252949	 1	 40.0	 0.0; % COW
	371	 231.0	 24.5	 124.1169	 -49.8432	 1.014864	 348.443414	 1	 280.0	 0.0; % NG
	381	 636.3	 103.6	 304.3814	 -125.481	 1.070579	 967.018078	 1	 700.0	 233.333331; % COW
	388	 142.98	 57.87	 9999.0	 -9999.0	 1.059877	 231.37089	 1	 9999.0	 -9999.0; % COW
	390	 436.0	 105.5	 217.1751	 -89.2166	 1.047842	 672.873734	 1	 500.0	 166.666665; % NG
	394	 74.0	 7.0	 45.10484	 -16.1804	 1.021182	 111.495516	 1	 100.0	 0.0; % NG
	395	 308.6	 -28.2	 175.156	 -69.2068	 1.098682	 464.828678	 1	 400.0	 0.0; % NG
	396	 83.1	 9.9	 55.72715	 -19.0053	 1.085545	 125.53145	 1	 120.0	 0.0; % NG
	398	 4.5	 0.6	 0.6	 0.6	 1.0075	 6.809736	 1	 4.5	 4.5; % PEL
	402	 5.37	 2.33	 9999.0	 -9999.0	 1.045887	 8.78055	 1	 9999.0	 -9999.0; % COW
	403	 39.9	 3.6	 16.84024	 -8.04071	 1.001545	 60.093115	 1	 40.0	 0.0; % NG
	408	 47.6	 11.8	 37.86198	 -11.9408	 1.012818	 73.561199	 1	 80.0	 0.0; % PEL
	409	 260.1	 75.6	 257.2252	 -74.3989	 1.077842	 406.296176	 1	 540.0	 0.0; % COW
	410	 6.88	 3.44	 9999.0	 -9999.0	 1.057826	 11.538111	 1	 9999.0	 -9999.0; % COW
	411	 42.5	 6.1	 44.79799	 -39.8056	 0.996818	 64.4033	 1	 129.18183	 0.0; % NG
	427	 16.34	 5.12	 9999.0	 -9999.0	 1.045996	 25.685064	 1	 9999.0	 -9999.0; % COW
	438	 229.5	 -11.1	 132.4063	 -50.8474	 0.989364	 344.652412	 1	 300.0	 0.0; % NG
	441	 3.8	 2.48	 9999.0	 -9999.0	 1.011891	 6.806497	 1	 9999.0	 -9999.0; % COW
	442	 8.5	 1.1	 1.1	 1.1	 1.031	 12.856321	 1	 8.5	 8.5; % NG
	444	 105.4	 38.0	 94.56444	 -28.1008	 1.099	 168.061328	 1	 200.0	 0.0; % NG
	451	 135.89	 60.88	 9999.0	 -9999.0	 1.032798	 223.356329	 1	 9999.0	 -9999.0; % COW
	459	 19.83	 5.95	 9999.0	 -9999.0	 0.960088	 31.055123	 1	 9999.0	 -9999.0; % COW
	462	 101.4	 5.8	 94.3813	 -28.0441	 1.078553	 152.348613	 1	 200.0	 0.0; % NG
	466	 129.6	 25.6	 72.50375	 -27.2399	 1.075364	 198.156302	 1	 160.0	 0.0; % NG
	467	 539.4	 133.2	 261.7932	 -106.67	 1.075818	 833.404374	 1	 600.0	 199.999998; % COW
	469	 192.6	 28.0	 85.62814	 -37.2118	 1.031395	 291.936997	 1	 200.0	 66.666666; % NG
	503	 0.18	 3.57	 9999.0	 -9999.0	 1.04818	 5.361802	 1	 9999.0	 -9999.0; % COW
	509	 6.9	 3.0	 18.46584	 -19.3502	 1.040727	 11.285943	 1	 56.816328	 0.0; % NG
	522	 0.13	 1.0	 9999.0	 -9999.0	 1.078858	 1.512622	 1	 9999.0	 -9999.0; % COW
	523	 55.7	 4.4	 25.87924	 -11.0132	 0.997091	 83.810277	 1	 60.0	 0.0; % PEL
	527	 33.6	 7.3	 17.88329	 -7.03048	 1.057636	 51.575794	 1	 40.0	 0.0; % COW
	531	 249.0	 66.8	 185.5624	 -59.3858	 1.0595	 386.706982	 1	 400.0	 133.333333; % NG
	534	 400.8	 78.8	 380.3121	 -110.078	 1.094921	 612.709295	 1	 800.0	 266.666666; % COW
	557	 38.2	 -3.3	 17.0903	 -7.78858	 1.096591	 57.513411	 1	 40.0	 0.0; % NG
	558	 379.2	 55.2	 217.8958	 -81.1598	 1.079273	 574.79499	 1	 480.0	 159.999996; % COW
	559	 9.73	 6.29	 9999.0	 -9999.0	 0.973935	 17.379104	 1	 9999.0	 -9999.0; % NUC
	560	 671.2	 61.6	 351.176	 -139.111	 1.082368	 1011.031157	 1	 800.0	 266.666664; % COW
	569	 152.4	 5.7	 78.788	 -31.6917	 0.992455	 228.759836	 1	 180.0	 0.0; % NG
	576	 109.8	 21.6	 52.99446	 -21.8745	 1.056636	 167.856635	 1	 120.0	 0.0; % NG
	577	 20.59	 8.08	 9999.0	 -9999.0	 1.020676	 33.177969	 1	 9999.0	 -9999.0; % COW
	578	 133.7	 56.0	 135.5178	 -38.9046	 1.050773	 217.431144	 1	 280.0	 0.0; % NG
	580	 1.23	 -0.1	 9999.0	 -9999.0	 1.081123	 1.851088	 1	 9999.0	 -9999.0; % NUC
	581	 38.7	 4.0	 90.12852	 -93.0288	 1.085368	 58.359254	 1	 276.09134	 0.0; % NG
	584	 0.59	 0.83	 9999.0	 -9999.0	 1.05456	 1.527498	 1	 9999.0	 -9999.0; % COW
	586	 47.2	 5.6	 37.9476	 -11.8693	 1.054773	 71.296564	 1	 80.0	 0.0; % COW
	589	 17.53	 3.75	 9999.0	 -9999.0	 0.950047	 26.889917	 1	 9999.0	 -9999.0; % COW
	593	 0.15	 1.93	 9999.0	 -9999.0	 1.029293	 2.90373	 1	 9999.0	 -9999.0; % COW
	603	 5.61	 2.79	 9999.0	 -9999.0	 1.07087	 9.398215	 1	 9999.0	 -9999.0; % COW
	608	 67.0	 11.9	 71.32494	 -62.9243	 1.063974	 102.072878	 1	 205.80612	 0.0; % NG
	618	 37.4	 12.2	 38.76588	 -11.0648	 1.084227	 59.009321	 1	 80.0	 0.0; % PEL
	622	 20.7	 5.2	 34.74669	 -34.262	 1.053045	 32.014723	 1	 104.27135	 0.0; % NG
	627	 274.8	 -4.8	 182.1713	 -62.7871	 1.09875	 412.262877	 1	 400.0	 133.333332; % COW
	631	 0.61	 1.21	 9999.0	 -9999.0	 1.073545	 2.032597	 1	 9999.0	 -9999.0; % COW
	632	 634.8	 61.4	 357.3998	 -132.748	 1.096316	 956.643742	 1	 800.0	 266.666666; % NUC
	633	 274.8	 8.2	 129.9381	 -53.9068	 1.016727	 412.383474	 1	 300.0	 100.0; % COW
	643	 16.0	 1.4	 22.22661	 -20.8341	 1.085395	 24.0917	 1	 65.29948	 0.0; % PEL
	645	 451.2	 139.2	 377.0113	 -113.626	 1.055184	 708.276556	 1	 800.0	 266.666666; % COW
	647	 99.3	 9.3	 53.98251	 -20.7936	 0.991455	 149.601822	 1	 120.0	 0.0; % NG
	648	 453.4	 122.2	 376.3604	 -114.083	 1.092237	 704.368441	 1	 800.0	 266.666666; % COW
	651	 17.19	 5.2	 9999.0	 -9999.0	 1.039331	 26.938935	 1	 9999.0	 -9999.0; % COW
	652	 0.54	 0.99	 9999.0	 -9999.0	 1.043796	 1.691545	 1	 9999.0	 -9999.0; % COW
	659	 419.2	 174.6	 379.6141	 -111.091	 1.097447	 681.161545	 1	 800.0	 266.666666; % COW
	665	 96.77	 44.54	 9999.0	 -9999.0	 1.04125	 159.792209	 1	 9999.0	 -9999.0; % COW
	666	 14.71	 4.51	 9999.0	 -9999.0	 1.033004	 23.078766	 1	 9999.0	 -9999.0; % COW
	668	 102.0	 22.0	 107.8562	 -95.1534	 1.016545	 156.51837	 1	 311.391	 34.599; % COW
	669	 467.0	 46.0	 212.9697	 -93.4506	 1.079789	 703.890084	 1	 500.0	 166.666665; % COW
	677	 49.2	 10.4	 37.77862	 -12.0423	 0.989364	 75.430763	 1	 80.0	 0.0; % COW
	679	 215.4	 61.2	 105.6865	 -43.844	 0.995136	 335.888151	 1	 240.0	 0.0; % NG
	681	 208.5	 30.0	 136.9403	 -47.2439	 1.023545	 315.970825	 1	 300.0	 0.0; % NG
	686	 116.7	 11.4	 51.29568	 -23.4138	 1.066816	 175.883235	 1	 120.0	 0.0; % COW
	692	 37.3	 6.7	 27.88098	 -8.97053	 1.081455	 56.845448	 1	 60.0	 0.0; % NG
	693	 361.7	 56.6	 174.172	 -71.125	 1.000409	 549.15254	 1	 400.0	 133.333333; % NG
	694	 170.7	 3.9	 76.76137	 -33.8382	 1.062591	 256.116819	 1	 180.0	 0.0; % COW
	698	 0.43	 0.0	 9999.0	 -9999.0	 1.065508	 0.645	 1	 9999.0	 -9999.0; % COW
	702	 14.87	 4.17	 9999.0	 -9999.0	 0.988124	 23.165449	 1	 9999.0	 -9999.0; % COW
	703	 55.14	 27.14	 9999.0	 -9999.0	 1.081084	 92.185944	 1	 9999.0	 -9999.0; % COW
	704	 30.8	 3.3	 18.16351	 -6.7311	 1.063773	 46.464422	 1	 40.0	 0.0; % NG
	705	 16.5	 2.0	 12.36838	 -9.36122	 1.078	 24.931155	 1	 33.58376	 0.0; % NG
	706	 37.8	 8.7	 17.34023	 -7.58033	 1.068842	 58.182407	 1	 45.0	 0.0; % NG
	707	 50.8	 3.2	 37.43079	 -12.3168	 1.024136	 76.351031	 1	 80.0	 0.0; % NG
	711	 26.0	 14.72	 9999.0	 -9999.0	 1.076152	 44.816586	 1	 9999.0	 -9999.0; % COW
	716	 0.15	 1.0	 9999.0	 -9999.0	 1.077179	 1.516781	 1	 9999.0	 -9999.0; % COW
	717	 621.8	 175.4	 567.628	 -167.477	 1.103342	 969.097983	 1	 1200.0	 399.999999; % COW
	720	 58.4	 9.8	 36.75392	 -13.0447	 1.073864	 88.824828	 1	 80.0	 0.0; % COW
	721	 31.6	 14.2	 39.0043	 -10.7449	 1.014545	 51.965854	 1	 80.0	 0.0; % NG
	728	 111.2	 22.4	 74.03435	 -25.5438	 1.038955	 170.150522	 1	 160.0	 0.0; % NG
	732	 1820.0	 154.0	 864.4675	 -360.968	 1.085842	 2739.755646	 1	 2000.0	 666.666665; % COW
	736	 -17.83	 9.5	 9999.0	 -9999.0	 1.059217	 30.304414	 1	 9999.0	 -9999.0; % COW
	739	 -3.15	 1.79	 9999.0	 -9999.0	 1.03953	 5.434598	 1	 9999.0	 -9999.0; % COW
	746	 1274.2	 277.8	 926.6834	 -298.308	 1.084658	 1956.196969	 1	 2000.0	 666.666666; % NUC
	752	 85.2	 10.2	 55.58738	 -19.18	 0.999909	 128.712587	 1	 120.0	 0.0; % NG
	753	 507.0	 76.4	 264.7092	 -102.832	 1.013227	 769.086088	 1	 600.0	 200.0; % COW
	757	 44.0	 4.2	 27.19461	 -9.66223	 1.066136	 66.3	 1	 60.0	 0.0; % PEL
	764	 97.5	 15.9	 54.35089	 -20.4699	 1.091289	 148.181932	 1	 120.0	 0.0; % NG
	767	 66.8	 3.9	 49.63444	 -38.1223	 1.045867	 100.370626	 1	 136.7347	 22.789117; % NG
	768	 8.7	 1.1	 1.1	 1.1	 1.087553	 13.153897	 1	 8.7	 8.7; % NG
	770	 94.0	 32.5	 96.63999	 -27.8097	 1.065727	 149.189686	 1	 200.0	 0.0; % NG
	776	 855.6	 159.3	 440.6747	 -172.154	 1.081211	 1305.454964	 1	 1000.0	 333.333333; % NUC
	778	 55.8	 15.9	 57.97606	 -16.677	 1.054545	 87.031675	 1	 120.0	 0.0; % NG
	787	 11.81	 4.86	 9999.0	 -9999.0	 1.057058	 19.156339	 1	 9999.0	 -9999.0; % COW
	790	 343.5	 24.0	 228.1617	 -78.185	 1.081263	 516.506111	 1	 500.0	 166.666665; % COW
	801	 2.85	 7.24	 9999.0	 -9999.0	 1.032767	 11.671128	 1	 9999.0	 -9999.0; % COW
	803	 199.4	 58.9	 138.6001	 -45.2708	 1.061636	 311.875829	 1	 300.0	 100.0; % COW
	806	 1702.8	 411.6	 1097.413	 -373.912	 1.068474	 2627.759578	 1	 2400.0	 799.999998; % COW
	807	 56.7	 22.2	 58.05788	 -16.6605	 1.044273	 91.336699	 1	 120.0	 0.0; % NG
	809	 289.6	 55.2	 141.9267	 -57.7392	 1.016409	 442.220759	 1	 320.0	 0.0; % NG
	815	 4.94	 3.67	 9999.0	 -9999.0	 0.996099	 9.231096	 1	 9999.0	 -9999.0; % COW
	825	 1249.4	 419.0	 772.113	 -269.937	 1.047395	 1976.679807	 1	 1700.0	 566.666665; % COW
	828	 231.0	 20.0	 134.4455	 -49.7625	 1.079591	 347.796277	 1	 300.0	 0.0; % COW
	829	 32.0	 6.4	 18.22456	 -6.72812	 1.014182	 48.950587	 1	 40.0	 0.0; % NG
	838	 27.4	 9.3	 28.69322	 -8.15604	 1.067318	 43.402909	 1	 60.0	 0.0; % PEL
	841	 680.7	 26.7	 406.6568	 -144.751	 1.099553	 1021.835165	 1	 900.0	 300.0; % COW
	864	 10.1	 3.95	 9999.0	 -9999.0	 1.066541	 16.267395	 1	 9999.0	 -9999.0; % COW
	877	 24.29	 8.74	 9999.0	 -9999.0	 0.992788	 38.721846	 1	 9999.0	 -9999.0; % COW
...
];

%% generator cost data
%	2	startup	shutdown	n	c(n-1)	...	c0
mpc.gencost = [
2	0.0	0.0	3	0.2	18.130646	0.000000;	%	COW
2	0.0	0.0	3	0.2	29.899131	0.000000;	%	COW
2	0.0	0.0	3	0.2	23.714975	0.000000;	%	COW
2	0.0	0.0	3	0.2	29.564137	0.000000;	%	NG
2	0.0	0.0	3	0.2	23.311448	0.000000;	%	NG
2	0.0	0.0	3	0.2	118.442461	0.000000;	%	PEL
2	0.0	0.0	3	0.2	14.497507	0.000000;	%	NG
2	0.0	0.0	3	0.2	6.747879	0.000000;	%	NUC
2	0.0	0.0	3	0.2	42.608525	0.000000;	%	NG
2	0.0	0.0	3	0.2	46.425028	0.000000;	%	NG
2	0.0	0.0	3	0.2	32.169166	0.000000;	%	COW
2	0.0	0.0	3	0.2	34.096008	0.000000;	%	NG
2	0.0	0.0	3	0.2	6.502744	0.000000;	%	NUC
2	0.0	0.0	3	0.2	27.300737	0.000000;	%	COW
2	0.0	0.0	3	0.2	29.332069	0.000000;	%	COW
2	0.0	0.0	3	0.2	29.315452	0.000000;	%	NG
2	0.0	0.0	3	0.2	36.089004	0.000000;	%	NG
2	0.0	0.0	3	0.2	24.964515	0.000000;	%	COW
2	0.0	0.0	3	0.2	37.504296	0.000000;	%	NG
2	0.0	0.0	3	0.2	7.752850	0.000000;	%	NUC
2	0.0	0.0	3	0.2	26.258554	0.000000;	%	COW
2	0.0	0.0	3	0.2	31.404643	0.000000;	%	NG
2	0.0	0.0	3	0.2	23.164513	0.000000;	%	COW
2	0.0	0.0	3	0.2	10.909421	0.000000;	%	NG
2	0.0	0.0	3	0.2	30.619126	0.000000;	%	COW
2	0.0	0.0	3	0.2	39.907284	0.000000;	%	NG
2	0.0	0.0	3	0.2	31.308174	0.000000;	%	COW
2	0.0	0.0	3	0.2	9.218636	0.000000;	%	COW
2	0.0	0.0	3	0.2	23.831525	0.000000;	%	COW
2	0.0	0.0	3	0.2	20.866181	0.000000;	%	COW
2	0.0	0.0	3	0.2	17.289072	0.000000;	%	COW
2	0.0	0.0	3	0.2	30.294626	0.000000;	%	NG
2	0.0	0.0	3	0.2	41.114366	0.000000;	%	NG
2	0.0	0.0	3	0.2	38.188996	0.000000;	%	COW
2	0.0	0.0	3	0.2	7.997956	0.000000;	%	NUC
2	0.0	0.0	3	0.2	20.199133	0.000000;	%	COW
2	0.0	0.0	3	0.2	47.960916	0.000000;	%	NG
2	0.0	0.0	3	0.2	53.879456	0.000000;	%	NG
2	0.0	0.0	3	0.2	32.075190	0.000000;	%	COW
2	0.0	0.0	3	0.2	25.774221	0.000000;	%	NG
2	0.0	0.0	3	0.2	24.822136	0.000000;	%	NG
2	0.0	0.0	3	0.2	11.496713	0.000000;	%	NG
2	0.0	0.0	3	0.2	11.459789	0.000000;	%	COW
2	0.0	0.0	3	0.2	26.778074	0.000000;	%	COW
2	0.0	0.0	3	0.2	14.497525	0.000000;	%	NG
2	0.0	0.0	3	0.2	26.821946	0.000000;	%	NG
2	0.0	0.0	3	0.2	27.652106	0.000000;	%	COW
2	0.0	0.0	3	0.2	19.781025	0.000000;	%	COW
2	0.0	0.0	3	0.2	29.355020	0.000000;	%	NG
2	0.0	0.0	3	0.2	13.329335	0.000000;	%	COW
2	0.0	0.0	3	0.2	34.857966	0.000000;	%	NG
2	0.0	0.0	3	0.2	42.432193	0.000000;	%	COW
2	0.0	0.0	3	0.2	32.372311	0.000000;	%	COW
2	0.0	0.0	3	0.2	55.929965	0.000000;	%	NG
2	0.0	0.0	3	0.2	25.193859	0.000000;	%	COW
2	0.0	0.0	3	0.2	39.048246	0.000000;	%	NG
2	0.0	0.0	3	0.2	28.244934	0.000000;	%	COW
2	0.0	0.0	3	0.2	107.279795	0.000000;	%	PEL
2	0.0	0.0	3	0.2	7.333091	0.000000;	%	NUC
2	0.0	0.0	3	0.2	10.543214	0.000000;	%	COW
2	0.0	0.0	3	0.2	25.069247	0.000000;	%	COW
	2	 0.0	 0.0	 3	   0.000000	   0.000000	   0.000000; % SYNC
2	0.0	0.0	3	0.2	7.613053	0.000000;	%	NUC
2	0.0	0.0	3	0.2	28.945646	0.000000;	%	NG
2	0.0	0.0	3	0.2	7.103443	0.000000;	%	NG
2	0.0	0.0	3	0.2	24.752858	0.000000;	%	COW
2	0.0	0.0	3	0.2	32.436780	0.000000;	%	NG
2	0.0	0.0	3	0.2	116.591305	0.000000;	%	PEL
2	0.0	0.0	3	0.2	30.648792	0.000000;	%	NG
2	0.0	0.0	3	0.2	22.252807	0.000000;	%	COW
2	0.0	0.0	3	0.2	30.916947	0.000000;	%	COW
2	0.0	0.0	3	0.2	29.428880	0.000000;	%	COW
2	0.0	0.0	3	0.2	38.662181	0.000000;	%	NG
2	0.0	0.0	3	0.2	23.283271	0.000000;	%	COW
2	0.0	0.0	3	0.2	24.362241	0.000000;	%	COW
2	0.0	0.0	3	0.2	18.181341	0.000000;	%	COW
2	0.0	0.0	3	0.2	100.673745	0.000000;	%	PEL
2	0.0	0.0	3	0.2	46.732707	0.000000;	%	NG
2	0.0	0.0	3	0.2	27.314392	0.000000;	%	COW
2	0.0	0.0	3	0.2	27.603616	0.000000;	%	COW
2	0.0	0.0	3	0.2	25.709033	0.000000;	%	COW
2	0.0	0.0	3	0.2	16.818857	0.000000;	%	COW
2	0.0	0.0	3	0.2	18.491283	0.000000;	%	COW
2	0.0	0.0	3	0.2	22.704611	0.000000;	%	COW
2	0.0	0.0	3	0.2	50.404721	0.000000;	%	NG
2	0.0	0.0	3	0.2	9.091379	0.000000;	%	COW
2	0.0	0.0	3	0.2	24.181733	0.000000;	%	COW
2	0.0	0.0	3	0.2	44.314382	0.000000;	%	NG
2	0.0	0.0	3	0.2	23.576426	0.000000;	%	COW
2	0.0	0.0	3	0.2	8.465543	0.000000;	%	COW
2	0.0	0.0	3	0.2	43.788936	0.000000;	%	NG
2	0.0	0.0	3	0.2	44.584229	0.000000;	%	NG
2	0.0	0.0	3	0.2	31.322202	0.000000;	%	NG
2	0.0	0.0	3	0.2	32.263223	0.000000;	%	NG
2	0.0	0.0	3	0.2	117.568688	0.000000;	%	PEL
2	0.0	0.0	3	0.2	28.525744	0.000000;	%	COW
2	0.0	0.0	3	0.2	9.000590	0.000000;	%	NG
2	0.0	0.0	3	0.2	113.127710	0.000000;	%	PEL
2	0.0	0.0	3	0.2	35.996032	0.000000;	%	COW
2	0.0	0.0	3	0.2	27.238071	0.000000;	%	COW
2	0.0	0.0	3	0.2	19.224556	0.000000;	%	NG
2	0.0	0.0	3	0.2	22.042403	0.000000;	%	COW
2	0.0	0.0	3	0.2	26.226613	0.000000;	%	NG
2	0.0	0.0	3	0.2	21.446039	0.000000;	%	COW
2	0.0	0.0	3	0.2	35.086407	0.000000;	%	NG
2	0.0	0.0	3	0.2	23.419020	0.000000;	%	NG
2	0.0	0.0	3	0.2	20.446315	0.000000;	%	COW
2	0.0	0.0	3	0.2	22.689615	0.000000;	%	COW
2	0.0	0.0	3	0.2	23.917116	0.000000;	%	NG
2	0.0	0.0	3	0.2	40.657884	0.000000;	%	NG
2	0.0	0.0	3	0.2	21.173151	0.000000;	%	COW
2	0.0	0.0	3	0.2	39.108451	0.000000;	%	NG
2	0.0	0.0	3	0.2	36.530806	0.000000;	%	COW
2	0.0	0.0	3	0.2	46.532813	0.000000;	%	NG
2	0.0	0.0	3	0.2	27.816016	0.000000;	%	COW
2	0.0	0.0	3	0.2	98.850429	0.000000;	%	PEL
2	0.0	0.0	3	0.2	43.127373	0.000000;	%	COW
2	0.0	0.0	3	0.2	41.726959	0.000000;	%	NG
2	0.0	0.0	3	0.2	24.224455	0.000000;	%	COW
2	0.0	0.0	3	0.2	23.622934	0.000000;	%	NG
2	0.0	0.0	3	0.2	21.653828	0.000000;	%	COW
2	0.0	0.0	3	0.2	6.539002	0.000000;	%	NUC
2	0.0	0.0	3	0.2	38.612077	0.000000;	%	COW
2	0.0	0.0	3	0.2	41.344935	0.000000;	%	NG
2	0.0	0.0	3	0.2	48.583814	0.000000;	%	NG
2	0.0	0.0	3	0.2	28.445641	0.000000;	%	COW
2	0.0	0.0	3	0.2	38.110435	0.000000;	%	NG
2	0.0	0.0	3	0.2	7.480638	0.000000;	%	NUC
2	0.0	0.0	3	0.2	45.310011	0.000000;	%	NG
2	0.0	0.0	3	0.2	13.516269	0.000000;	%	COW
2	0.0	0.0	3	0.2	17.303315	0.000000;	%	COW
2	0.0	0.0	3	0.2	14.417375	0.000000;	%	COW
2	0.0	0.0	3	0.2	30.051325	0.000000;	%	COW
2	0.0	0.0	3	0.2	21.768645	0.000000;	%	COW
2	0.0	0.0	3	0.2	21.600583	0.000000;	%	NG
2	0.0	0.0	3	0.2	113.708150	0.000000;	%	PEL
2	0.0	0.0	3	0.2	40.165534	0.000000;	%	NG
2	0.0	0.0	3	0.2	40.483065	0.000000;	%	COW
2	0.0	0.0	3	0.2	15.409557	0.000000;	%	COW
2	0.0	0.0	3	0.2	7.911011	0.000000;	%	NUC
2	0.0	0.0	3	0.2	22.856992	0.000000;	%	COW
2	0.0	0.0	3	0.2	117.207234	0.000000;	%	PEL
2	0.0	0.0	3	0.2	11.716451	0.000000;	%	COW
2	0.0	0.0	3	0.2	41.514516	0.000000;	%	NG
2	0.0	0.0	3	0.2	21.515337	0.000000;	%	COW
2	0.0	0.0	3	0.2	30.270179	0.000000;	%	COW
2	0.0	0.0	3	0.2	24.508910	0.000000;	%	COW
2	0.0	0.0	3	0.2	2.881460	0.000000;	%	COW
2	0.0	0.0	3	0.2	9.436772	0.000000;	%	COW
2	0.0	0.0	3	0.2	23.792470	0.000000;	%	COW
2	0.0	0.0	3	0.2	13.635119	0.000000;	%	COW
2	0.0	0.0	3	0.2	27.422240	0.000000;	%	COW
2	0.0	0.0	3	0.2	31.021825	0.000000;	%	COW
2	0.0	0.0	3	0.2	41.272833	0.000000;	%	NG
2	0.0	0.0	3	0.2	30.882109	0.000000;	%	NG
2	0.0	0.0	3	0.2	28.783414	0.000000;	%	COW
2	0.0	0.0	3	0.2	34.079474	0.000000;	%	NG
2	0.0	0.0	3	0.2	50.861316	0.000000;	%	NG
2	0.0	0.0	3	0.2	30.575138	0.000000;	%	COW
2	0.0	0.0	3	0.2	19.269500	0.000000;	%	COW
2	0.0	0.0	3	0.2	18.529946	0.000000;	%	COW
2	0.0	0.0	3	0.2	18.812025	0.000000;	%	COW
2	0.0	0.0	3	0.2	37.632180	0.000000;	%	NG
2	0.0	0.0	3	0.2	38.051403	0.000000;	%	NG
2	0.0	0.0	3	0.2	27.679125	0.000000;	%	NG
2	0.0	0.0	3	0.2	40.014491	0.000000;	%	NG
2	0.0	0.0	3	0.2	14.026515	0.000000;	%	COW
2	0.0	0.0	3	0.2	30.439785	0.000000;	%	COW
2	0.0	0.0	3	0.2	21.748961	0.000000;	%	COW
2	0.0	0.0	3	0.2	17.097731	0.000000;	%	COW
2	0.0	0.0	3	0.2	30.789745	0.000000;	%	NG
2	0.0	0.0	3	0.2	19.819745	0.000000;	%	NG
2	0.0	0.0	3	0.2	37.582986	0.000000;	%	COW
2	0.0	0.0	3	0.2	31.921308	0.000000;	%	COW
2	0.0	0.0	3	0.2	12.304414	0.000000;	%	COW
2	0.0	0.0	3	0.2	8.072454	0.000000;	%	NUC
2	0.0	0.0	3	0.2	45.713051	0.000000;	%	NG
2	0.0	0.0	3	0.2	30.558019	0.000000;	%	COW
2	0.0	0.0	3	0.2	115.436487	0.000000;	%	PEL
2	0.0	0.0	3	0.2	33.990617	0.000000;	%	NG
2	0.0	0.0	3	0.2	27.137478	0.000000;	%	NG
2	0.0	0.0	3	0.2	40.499529	0.000000;	%	NG
2	0.0	0.0	3	0.2	52.499699	0.000000;	%	NG
2	0.0	0.0	3	0.2	6.345038	0.000000;	%	NUC
2	0.0	0.0	3	0.2	41.194918	0.000000;	%	NG
2	0.0	0.0	3	0.2	22.999022	0.000000;	%	COW
2	0.0	0.0	3	0.2	17.952791	0.000000;	%	COW
2	0.0	0.0	3	0.2	25.033657	0.000000;	%	COW
2	0.0	0.0	3	0.2	25.364788	0.000000;	%	COW
2	0.0	0.0	3	0.2	24.403688	0.000000;	%	COW
2	0.0	0.0	3	0.2	26.847029	0.000000;	%	NG
2	0.0	0.0	3	0.2	40.289916	0.000000;	%	NG
2	0.0	0.0	3	0.2	28.765848	0.000000;	%	COW
2	0.0	0.0	3	0.2	4.825237	0.000000;	%	COW
2	0.0	0.0	3	0.2	30.837778	0.000000;	%	COW
2	0.0	0.0	3	0.2	51.283237	0.000000;	%	NG
2	0.0	0.0	3	0.2	112.489572	0.000000;	%	PEL
2	0.0	0.0	3	0.2	17.187205	0.000000;	%	COW
2	0.0	0.0	3	0.2	33.403189	0.000000;	%	COW
2	0.0	0.0	3	0.2	39.489589	0.000000;	%	COW
...
];

%% storage data
%	bus	energy	energy_rating	charge_rating	discharge_rating	thermal_rating	qmin	qmax	r	x	standby_loss	status
mpc.storage = [
	3822	0.0	0.0	1.00	1665.9000	832.9500	599.7240	0.9	0.85	1000	-1000	1000	0.1	0.01	0	0	1;
	8139	0.0	0.0	1.00	1389.7500	694.8750	500.3100	0.9	0.85	1000	-1000	1000	0.1	0.01	0	0	1;
	7735	0.0	0.0	1.00	1238.8050	619.4025	445.9698	0.9	0.85	1000	-1000	1000	0.1	0.01	0	0	1;
	6599	0.0	0.0	1.00	1073.7000	536.8500	386.5320	0.9	0.85	1000	-1000	1000	0.1	0.01	0	0	1;
	1961	0.0	0.0	1.00	1062.7500	531.3750	382.5900	0.9	0.85	1000	-1000	1000	0.1	0.01	0	0	1;
	2442	0.0	0.0	1.00	1022.2500	511.1250	368.0100	0.9	0.85	1000	-1000	1000	0.1	0.01	0	0	1;
	4172	0.0	0.0	1.00	1009.0500	504.5250	363.2580	0.9	0.85	1000	-1000	1000	0.1	0.01	0	0	1;
	7555	0.0	0.0	1.00	988.2000	494.1000	355.7520	0.9	0.85	1000	-1000	1000	0.1	0.01	0	0	1;
	2385	0.0	0.0	1.00	983.7000	491.8500	354.1320	0.9	0.85	1000	-1000	1000	0.1	0.01	0	0	1;
	2717	0.0	0.0	1.00	943.5000	471.7500	339.6600	0.9	0.85	1000	-1000	1000	0.1	0.01	0	0	1;
	2092	0.0	0.0	1.00	942.7500	471.3750	339.3900	0.9	0.85	1000	-1000	1000	0.1	0.01	0	0	1;
	1347	0.0	0.0	1.00	941.7000	470.8500	339.0120	0.9	0.85	1000	-1000	1000	0.1	0.01	0	0	1;
	758	0.0	0.0	1.00	923.7000	461.8500	332.5320	0.9	0.85	1000	-1000	1000	0.1	0.01	0	0	1;
	469	0.0	0.0	1.00	904.3500	452.1750	325.5660	0.9	0.85	1000	-1000	1000	0.1	0.01	0	0	1;
	597	0.0	0.0	1.00	876.4500	438.2250	315.5220	0.9	0.85	1000	-1000	1000	0.1	0.01	0	0	1;
	2804	0.0	0.0	1.00	863.4000	431.7000	310.8240	0.9	0.85	1000	-1000	1000	0.1	0.01	0	0	1;
	4989	0.0	0.0	1.00	861.4500	430.7250	310.1220	0.9	0.85	1000	-1000	1000	0.1	0.01	0	0	1;
	4663	0.0	0.0	1.00	858.4500	429.2250	309.0420	0.9	0.85	1000	-1000	1000	0.1	0.01	0	0	1;
	2790	0.0	0.0	1.00	849.1500	424.5750	305.6940	0.9	0.85	1000	-1000	1000	0.1	0.01	0	0	1;
	1261	0.0	0.0	1.00	843.4500	421.7250	303.6420	0.9	0.85	1000	-1000	1000	0.1	0.01	0	0	1;
	1234	0.0	0.0	1.00	807.4500	403.7250	290.6820	0.9	0.85	1000	-1000	1000	0.1	0.01	0	0	1;
	6862	0.0	0.0	1.00	797.5500	398.7750	287.1180	0.9	0.85	1000	-1000	1000	0.1	0.01	0	0	1;
	1923	0.0	0.0	1.00	794.8500	397.4250	286.1460	0.9	0.85	1000	-1000	1000	0.1	0.01	0	0	1;
	300	0.0	0.0	1.00	786.7500	393.3750	283.2300	0.9	0.85	1000	-1000	1000	0.1	0.01	0	0	1;
	7032	0.0	0.0	1.00	786.7500	393.3750	283.2300	0.9	0.85	1000	-1000	1000	0.1	0.01	0	0	1;
	2199	0.0	0.0	1.00	784.9500	392.4750	282.5820	0.9	0.85	1000	-1000	1000	0.1	0.01	0	0	1;
	5536	0.0	0.0	1.00	782.5500	391.2750	281.7180	0.9	0.85	1000	-1000	1000	0.1	0.01	0	0	1;
	8128	0.0	0.0	1.00	775.0500	387.5250	279.0180	0.9	0.85	1000	-1000	1000	0.1	0.01	0	0	1;
	5101	0.0	0.0	1.00	770.1000	385.0500	277.2360	0.9	0.85	1000	-1000	1000	0.1	0.01	0	0	1;
	4540	0.0	0.0	1.00	751.6500	375.8250	270.5940	0.9	0.85	1000	-1000	1000	0.1	0.01	0	0	1;
	2366	0.0	0.0	1.00	749.7003	374.8501	269.8921	0.9	0.85	1000	-1000	1000	0.1	0.01	0	0	1;
	5001	0.0	0.0	1.00	748.5000	374.2500	269.4600	0.9	0.85	1000	-1000	1000	0.1	0.01	0	0	1;
	4031	0.0	0.0	1.00	744.7500	372.3750	268.1100	0.9	0.85	1000	-1000	1000	0.1	0.01	0	0	1;
	2784	0.0	0.0	1.00	740.1000	370.0500	266.4360	0.9	0.85	1000	-1000	1000	0.1	0.01	0	0	1;
	8228	0.0	0.0	1.00	738.6000	369.3000	265.8960	0.9	0.85	1000	-1000	1000	0.1	0.01	0	0	1;
	8325	0.0	0.0	1.00	734.7000	367.3500	264.4920	0.9	0.85	1000	-1000	1000	0.1	0.01	0	0	1;
	5948	0.0	0.0	1.00	733.0500	366.5250	263.8980	0.9	0.85	1000	-1000	1000	0.1	0.01	0	0	1;
	7216	0.0	0.0	1.00	733.0500	366.5250	263.8980	0.9	0.85	1000	-1000	1000	0.1	0.01	0	0	1;
	6101	0.0	0.0	1.00	730.8000	365.4000	263.0880	0.9	0.85	1000	-1000	1000	0.1	0.01	0	0	1;
	3425	0.0	0.0	1.00	726.4500	363.2250	261.5220	0.9	0.85	1000	-1000	1000	0.1	0.01	0	0	1;
	5994	0.0	0.0	1.00	725.7000	362.8500	261.2520	0.9	0.85	1000	-1000	1000	0.1	0.01	0	0	1;
	1190	0.0	0.0	1.00	718.9500	359.4750	258.8220	0.9	0.85	1000	-1000	1000	0.1	0.01	0	0	1;
	1184	0.0	0.0	1.00	718.5000	359.2500	258.6600	0.9	0.85	1000	-1000	1000	0.1	0.01	0	0	1;
	5730	0.0	0.0	1.00	711.4500	355.7250	256.1220	0.9	0.85	1000	-1000	1000	0.1	0.01	0	0	1;
	3173	0.0	0.0	1.00	710.1000	355.0500	255.6360	0.9	0.85	1000	-1000	1000	0.1	0.01	0	0	1;
	7807	0.0	0.0	1.00	707.6808	353.8404	254.7651	0.9	0.85	1000	-1000	1000	0.1	0.01	0	0	1;
	6523	0.0	0.0	1.00	684.9000	342.4500	246.5640	0.9	0.85	1000	-1000	1000	0.1	0.01	0	0	1;
	5004	0.0	0.0	1.00	684.0000	342.0000	246.2400	0.9	0.85	1000	-1000	1000	0.1	0.01	0	0	1;
	2579	0.0	0.0	1.00	681.1500	340.5750	245.2140	0.9	0.85	1000	-1000	1000	0.1	0.01	0	0	1;
	807	0.0	0.0	1.00	678.7500	339.3750	244.3500	0.9	0.85	1000	-1000	1000	0.1	0.01	0	0	1;
	5089	0.0	0.0	1.00	674.1000	337.0500	242.6760	0.9	0.85	1000	-1000	1000	0.1	0.01	0	0	1;
	5922	0.0	0.0	1.00	669.7500	334.8750	241.1100	0.9	0.85	1000	-1000	1000	0.1	0.01	0	0	1;
	7917	0.0	0.0	1.00	665.7000	332.8500	239.6520	0.9	0.85	1000	-1000	1000	0.1	0.01	0	0	1;
	5693	0.0	0.0	1.00	661.8000	330.9000	238.2480	0.9	0.85	1000	-1000	1000	0.1	0.01	0	0	1;
	6941	0.0	0.0	1.00	658.5000	329.2500	237.0600	0.9	0.85	1000	-1000	1000	0.1	0.01	0	0	1;
	6040	0.0	0.0	1.00	652.8000	326.4000	235.0080	0.9	0.85	1000	-1000	1000	0.1	0.01	0	0	1;
	275	0.0	0.0	1.00	647.5500	323.7750	233.1180	0.9	0.85	1000	-1000	1000	0.1	0.01	0	0	1;
	8291	0.0	0.0	1.00	647.2500	323.6250	233.0100	0.9	0.85	1000	-1000	1000	0.1	0.01	0	0	1;
	5768	0.0	0.0	1.00	646.2000	323.1000	232.6320	0.9	0.85	1000	-1000	1000	0.1	0.01	0	0	1;
	6931	0.0	0.0	1.00	644.2500	322.1250	231.9300	0.9	0.85	1000	-1000	1000	0.1	0.01	0	0	1;
	7161	0.0	0.0	1.00	641.8500	320.9250	231.0660	0.9	0.85	1000	-1000	1000	0.1	0.01	0	0	1;
	208	0.0	0.0	1.00	639.9000	319.9500	230.3640	0.9	0.85	1000	-1000	1000	0.1	0.01	0	0	1;
	8052	0.0	0.0	1.00	639.9000	319.9500	230.3640	0.9	0.85	1000	-1000	1000	0.1	0.01	0	0	1;
	2805	0.0	0.0	1.00	639.6000	319.8000	230.2560	0.9	0.85	1000	-1000	1000	0.1	0.01	0	0	1;
	645	0.0	0.0	1.00	635.1000	317.5500	228.6360	0.9	0.85	1000	-1000	1000	0.1	0.01	0	0	1;
	451	0.0	0.0	1.00	634.8000	317.4000	228.5280	0.9	0.85	1000	-1000	1000	0.1	0.01	0	0	1;
	6578	0.0	0.0	1.00	633.0000	316.5000	227.8800	0.9	0.85	1000	-1000	1000	0.1	0.01	0	0	1;
	3620	0.0	0.0	1.00	629.2500	314.6250	226.5300	0.9	0.85	1000	-1000	1000	0.1	0.01	0	0	1;
	8376	0.0	0.0	1.00	623.7000	311.8500	224.5320	0.9	0.85	1000	-1000	1000	0.1	0.01	0	0	1;
	1536	0.0	0.0	1.00	623.2500	311.6250	224.3700	0.9	0.85	1000	-1000	1000	0.1	0.01	0	0	1;
	6726	0.0	0.0	1.00	623.2500	311.6250	224.3700	0.9	0.85	1000	-1000	1000	0.1	0.01	0	0	1;
	5493	0.0	0.0	1.00	618.1500	309.0750	222.5340	0.9	0.85	1000	-1000	1000	0.1	0.01	0	0	1;
	4687	0.0	0.0	1.00	616.9500	308.4750	222.1020	0.9	0.85	1000	-1000	1000	0.1	0.01	0	0	1;
	8034	0.0	0.0	1.00	615.4500	307.7250	221.5620	0.9	0.85	1000	-1000	1000	0.1	0.01	0	0	1;
	5439	0.0	0.0	1.00	613.3500	306.6750	220.8060	0.9	0.85	1000	-1000	1000	0.1	0.01	0	0	1;
	4881	0.0	0.0	1.00	612.4500	306.2250	220.4820	0.9	0.85	1000	-1000	1000	0.1	0.01	0	0	1;
	6589	0.0	0.0	1.00	609.4500	304.7250	219.4020	0.9	0.85	1000	-1000	1000	0.1	0.01	0	0	1;
	4123	0.0	0.0	1.00	608.2500	304.1250	218.9700	0.9	0.85	1000	-1000	1000	0.1	0.01	0	0	1;
	980	0.0	0.0	1.00	605.8500	302.9250	218.1060	0.9	0.85	1000	-1000	1000	0.1	0.01	0	0	1;
	2089	0.0	0.0	1.00	603.1500	301.5750	217.1340	0.9	0.85	1000	-1000	1000	0.1	0.01	0	0	1;
	7249	0.0	0.0	1.00	600.6000	300.3000	216.2160	0.9	0.85	1000	-1000	1000	0.1	0.01	0	0	1;
	658	0.0	0.0	1.00	600.4500	300.2250	216.1620	0.9	0.85	1000	-1000	1000	0.1	0.01	0	0	1;
	2908	0.0	0.0	1.00	597.0000	298.5000	214.9200	0.9	0.85	1000	-1000	1000	0.1	0.01	0	0	1;
	1979	0.0	0.0	1.00	595.0500	297.5250	214.2180	0.9	0.85	1000	-1000	1000	0.1	0.01	0	0	1;
	797	0.0	0.0	1.00	592.3500	296.1750	213.2460	0.9	0.85	1000	-1000	1000	0.1	0.01	0	0	1;
	2433	0.0	0.0	1.00	592.3500	296.1750	213.2460	0.9	0.85	1000	-1000	1000	0.1	0.01	0	0	1;
	3661	0.0	0.0	1.00	592.3500	296.1750	213.2460	0.9	0.85	1000	-1000	1000	0.1	0.01	0	0	1;
	3242	0.0	0.0	1.00	589.2000	294.6000	212.1120	0.9	0.85	1000	-1000	1000	0.1	0.01	0	0	1;
	943	0.0	0.0	1.00	588.9000	294.4500	212.0040	0.9	0.85	1000	-1000	1000	0.1	0.01	0	0	1;
	4288	0.0	0.0	1.00	588.0000	294.0000	211.6800	0.9	0.85	1000	-1000	1000	0.1	0.01	0	0	1;
	5673	0.0	0.0	1.00	586.9500	293.4750	211.3020	0.9	0.85	1000	-1000	1000	0.1	0.01	0	0	1;
	2541	0.0	0.0	1.00	586.2000	293.1000	211.0320	0.9	0.85	1000	-1000	1000	0.1	0.01	0	0	1;
	4239	0.0	0.0	1.00	585.7500	292.8750	210.8700	0.9	0.85	1000	-1000	1000	0.1	0.01	0	0	1;
	6311	0.0	0.0	1.00	584.7000	292.3500	210.4920	0.9	0.85	1000	-1000	1000	0.1	0.01	0	0	1;
	6558	0.0	0.0	1.00	583.0500	291.5250	209.8980	0.9	0.85	1000	-1000	1000	0.1	0.01	0	0	1;
	3230	0.0	0.0	1.00	580.6500	290.3250	209.0340	0.9	0.85	1000	-1000	1000	0.1	0.01	0	0	1;
	5590	0.0	0.0	1.00	575.4000	287.7000	207.1440	0.9	0.85	1000	-1000	1000	0.1	0.01	0	0	1;
	7806	0.0	0.0	1.00	573.6000	286.8000	206.4960	0.9	0.85	1000	-1000	1000	0.1	0.01	0	0	1;
	2818	0.0	0.0	1.00	571.3500	285.6750	205.6860	0.9	0.85	1000	-1000	1000	0.1	0.01	0	0	1;
	7649	0.0	0.0	1.00	571.2000	285.6000	205.6320	0.9	0.85	1000	-1000	1000	0.1	0.01	0	0	1;
	3036	0.0	0.0	1.00	569.8500	284.9250	205.1460	0.9	0.85	1000	-1000	1000	0.1	0.01	0	0	1;
	3033	0.0	0.0	1.00	569.2500	284.6250	204.9300	0.9	0.85	1000	-1000	1000	0.1	0.01	0	0	1;
	1	0.0	0.0	1.00	567.6000	283.8000	204.3360	0.9	0.85	1000	-1000	1000	0.1	0.01	0	0	1;
	7644	0.0	0.0	1.00	561.6000	280.8000	202.1760	0.9	0.85	1000	-1000	1000	0.1	0.01	0	0	1;
	2939	0.0	0.0	1.00	561.1500	280.5750	202.0140	0.9	0.85	1000	-1000	1000	0.1	0.01	0	0	1;
	2197	0.0	0.0	1.00	560.7000	280.3500	201.8520	0.9	0.85	1000	-1000	1000	0.1	0.01	0	0	1;
	334	0.0	0.0	1.00	560.5500	280.2750	201.7980	0.9	0.85	1000	-1000	1000	0.1	0.01	0	0	1;
	7990	0.0	0.0	1.00	559.5000	279.7500	201.4200	0.9	0.85	1000	-1000	1000	0.1	0.01	0	0	1;
	310	0.0	0.0	1.00	559.2000	279.6000	201.3120	0.9	0.85	1000	-1000	1000	0.1	0.01	0	0	1;
	6215	0.0	0.0	1.00	558.6000	279.3000	201.0960	0.9	0.85	1000	-1000	1000	0.1	0.01	0	0	1;
	4371	0.0	0.0	1.00	557.4000	278.7000	200.6640	0.9	0.85	1000	-1000	1000	0.1	0.01	0	0	1;
	5217	0.0	0.0	1.00	556.8000	278.4000	200.4480	0.9	0.85	1000	-1000	1000	0.1	0.01	0	0	1;
	154	0.0	0.0	1.00	555.7500	277.8750	200.0700	0.9	0.85	1000	-1000	1000	0.1	0.01	0	0	1;
	7466	0.0	0.0	1.00	555.3000	277.6500	199.9080	0.9	0.85	1000	-1000	1000	0.1	0.01	0	0	1;
	4891	0.0	0.0	1.00	555.0000	277.5000	199.8000	0.9	0.85	1000	-1000	1000	0.1	0.01	0	0	1;
	1700	0.0	0.0	1.00	554.2500	277.1250	199.5300	0.9	0.85	1000	-1000	1000	0.1	0.01	0	0	1;
	4845	0.0	0.0	1.00	549.9000	274.9500	197.9640	0.9	0.85	1000	-1000	1000	0.1	0.01	0	0	1;
	79	0.0	0.0	1.00	547.8000	273.9000	197.2080	0.9	0.85	1000	-1000	1000	0.1	0.01	0	0	1;
	3233	0.0	0.0	1.00	543.3000	271.6500	195.5880	0.9	0.85	1000	-1000	1000	0.1	0.01	0	0	1;
	4738	0.0	0.0	1.00	540.0000	270.0000	194.4000	0.9	0.85	1000	-1000	1000	0.1	0.01	0	0	1;
...